*Material, name=SKULL
*Density
2070.,
*Elastic
 8e+09, 0.22