*Material, name=CSF
*Density
1040.,
*Eos, type=USUP
1489., 1.79, 1.65