*Material, name=GRAYMATTER
*Density
1040.,
*Hyperelastic, ogden, moduli=LONG TERM
303.,    6., 4e-08
*Viscoelastic, time=PRONY
 0.566,     0.,  0.035
 0.324,     0., 0.0351