*Material, name=CSF, rtol=0.1
*Density
1004.,
*Hyperelastic, neo hooke, moduli=LONG TERM
50., 9.132e-10
*Viscoelastic, time=PRONY
 0.8,     0., 0.0125